/*--------------------------------*- C++ -*----------------------------------*\
| =========                 |                                                 |
| \\      /  F ield         | OpenFOAM: The Open Source CFD Toolbox           |
|  \\    /   O peration     | Version:  1.7.0                                 |
|   \\  /    A nd           | Web:      www.OpenFOAM.com                      |
|    \\/     M anipulation  |                                                 |
\*---------------------------------------------------------------------------*/
FoamFile
{
    version     2.0;
    format      ascii;
    class       dictionary;
    location    "system";
    object      fvSchemes;
}
// * * * * * * * * * * * * * * * * * * * * * * * * * * * * * * * * * * * * * //

ddtSchemes
{
    default         Euler;
}

interpolationSchemes
{
    default         linear;
}

divSchemes
{
    div(rhoPhi,U)        Gauss limitedLinearV 1;
    div(phi,alpha)       Gauss vanLeer;
    //div(phirb,alpha)     bounded Gauss interfaceCompression;
    div(phirb,alpha)     bounded Gauss limitedLinear 1; //changed by MMG
    div(R)               Gauss linear;
    //added by MMG
    div(((rho*nuEff)*dev2(T(grad(U))))) Gauss linear;
    div((muEff*dev(T(grad(U))))) Gauss linear;
    div(rhoPhi,H)        Gauss limitedLinear 1;
    default		none;
}

gradSchemes
{
    default         Gauss linear;
}

laplacianSchemes
{
    default         Gauss linear corrected;
}

snGradSchemes
{
    default              none;
    snGrad(pd)           limited 0.5;
    snGrad(rho)          limited 0.5;
    snGrad(alpha1)       limited 0.5;
    snGrad(T)            limited 0.5;
}

fluxRequired
{
    default         none;
    p_rgh;
    pcorr;
    alpha1;
}


// ************************************************************************* //
